Version 4.1
SHEET 1 880 680
WIRE 272 -208 208 -208
WIRE 272 -176 272 -208
WIRE 208 -144 208 -208
WIRE 208 0 208 -64
FLAG 208 80 0
FLAG 272 -176 0
SYMBOL bv 208 -16 R0
SYMATTR InstName B1
SYMATTR Value V=2u + white(1000 * time)
SYMBOL res 192 -160 R0
SYMATTR InstName R1
SYMATTR Value 100k
TEXT 168 104 Left 2 !.tran 1 uic
