Version 4.1
SHEET 1 1332 728
WIRE 336 -80 112 -80
WIRE 240 -48 176 -48
WIRE 240 -16 240 -48
WIRE 112 0 112 -80
WIRE 176 80 176 32
WIRE 112 96 112 64
WIRE 160 96 112 96
WIRE 336 112 336 -80
WIRE 336 112 224 112
WIRE 400 112 336 112
WIRE 160 128 112 128
WIRE 400 160 400 112
WIRE 592 160 560 160
WIRE 592 192 592 160
WIRE 112 208 112 128
WIRE 560 240 560 160
WIRE 640 240 592 240
WIRE 800 240 720 240
WIRE 400 256 400 240
WIRE 544 256 400 256
WIRE 720 272 608 272
WIRE 400 288 400 256
WIRE 544 288 496 288
WIRE 800 320 800 240
WIRE 560 336 560 304
WIRE 32 368 32 96
WIRE 496 496 496 288
WIRE 496 496 464 496
WIRE 528 496 496 496
WIRE 720 496 720 272
WIRE 720 496 592 496
WIRE 112 608 112 288
WIRE 224 608 112 608
WIRE 464 608 464 496
WIRE 464 608 304 608
WIRE 32 704 32 448
WIRE 720 704 720 496
WIRE 720 704 32 704
FLAG 240 -16 0
FLAG 560 416 0
FLAG 592 192 0
FLAG 176 144 0
FLAG 208 224 0
FLAG 800 320 0
SYMBOL cap 96 0 R0
SYMATTR InstName C1
SYMATTR Value 10n
SYMBOL cap 384 288 R0
SYMATTR InstName C2
SYMATTR Value 10n
SYMBOL cap 592 480 R90
WINDOW 0 0 32 VBottom 2
WINDOW 3 32 32 VTop 2
SYMATTR InstName C3
SYMATTR Value 10n
SYMBOL res 128 80 R90
WINDOW 0 0 56 VBottom 2
WINDOW 3 32 56 VTop 2
SYMATTR InstName R1
SYMATTR Value 100k
SYMBOL res 320 592 R90
WINDOW 0 0 56 VBottom 2
WINDOW 3 32 56 VTop 2
SYMATTR InstName R2
SYMATTR Value 100k
SYMBOL res 384 144 R0
SYMATTR InstName R3
SYMATTR Value 100k
SYMBOL voltage 176 48 R180
WINDOW 123 0 0 Left 0
WINDOW 39 0 0 Left 0
SYMATTR InstName V1
SYMATTR Value 5
SYMBOL voltage 112 192 R0
WINDOW 123 0 0 Left 0
WINDOW 39 0 0 Left 0
SYMATTR InstName V2
SYMATTR Value 2.5
SYMBOL voltage 560 320 R0
WINDOW 0 24 96 Left 2
WINDOW 3 24 16 Left 2
WINDOW 123 0 0 Left 0
WINDOW 39 0 0 Left 0
SYMATTR InstName V3
SYMATTR Value 5
SYMBOL bv 32 352 R0
SYMATTR InstName B1
SYMATTR Value V=0.2*white(1000 * time)
SYMBOL OpAmps\\MAX9916 192 128 R0
SYMATTR InstName U2
SYMBOL OpAmps\\MAX9916 576 256 M180
SYMATTR InstName U3
SYMBOL voltage 208 128 R0
WINDOW 123 0 0 Left 0
WINDOW 39 0 0 Left 0
SYMATTR InstName V4
SYMATTR Value 5
SYMBOL voltage 624 240 R270
WINDOW 123 0 0 Left 0
WINDOW 39 0 0 Left 0
SYMATTR InstName V5
SYMATTR Value 5
TEXT 24 712 Left 2 !.tran 1s uic
